~ iterations = 3809 objvalue = 43469495.946435496211052 relgap = 0.000007038692993
~ totalcost = 49295054.284946523606777
<NUMBER OF NODES>	12981
<NUMBER OF LINKS>	28376
<END OF METADATA>

~	Tail	Head	:	Volume	Cost	;
	1	11000	:	7.108977520368131	0.000000000000000;
	1	11007	:	35.395065656369773	0.000000000000000;
	1	11704	:	5.574000000000000	0.000000000000000;
	1	11708	:	13.863956823261987	0.000000000000000;
	1	11717	:	0.000000000000000	0.000000000000000;
	2	10892	:	480.977850708190317	0.000000000000000;
	2	10895	:	0.000000000000000	0.000000000000000;
	2	11707	:	396.836149291809875	0.000000000000000;
	2	11711	:	0.000000000000000	0.000000000000000;
	2	11714	:	13.230000000000000	0.000000000000000;
	3	3336	:	4.296270755660423	0.000000000000000;
	3	3361	:	11.382052665322675	0.000000000000000;
	3	10256	:	29.652000000000001	0.000000000000000;
	3	11293	:	55.912105495137098	0.000000000000000;
	3	12313	:	2.681571083879778	0.000000000000000;
	4	12363	:	0.000000000000000	0.000000000000000;
	4	12685	:	21.847999999999999	0.000000000000000;
	4	12690	:	2.360000000000000	0.000000000000000;
	4	12799	:	0.000000000000000	0.000000000000000;
	4	12800	:	0.000000000000000	0.000000000000000;
	5	11696	:	0.000000000000000	0.000000000000000;
	5	11697	:	73.556000000000012	0.000000000000000;
	5	11698	:	85.711650429274059	0.000000000000000;
	5	11714	:	41.672917245669524	0.000000000000000;
	5	11725	:	133.775432325056300	0.000000000000000;
	6	11016	:	0.000000000000000	0.000000000000000;
	6	11017	:	8.591999999999999	0.000000000000000;
	6	11695	:	27.693966091181903	0.000000000000000;
	6	11717	:	0.000033908818107	0.000000000000000;
	6	11724	:	55.262000000000000	0.000000000000000;
	7	3365	:	4.842458541371105	0.000000000000000;
	7	10957	:	0.000000000000000	0.000000000000000;
	7	11375	:	206.036531187660188	0.000000000000000;
	7	11744	:	0.000000000000000	0.000000000000000;
	7	12515	:	106.573010270968126	0.000000000000000;
	8	3361	:	2.652000000000000	0.000000000000000;
	8	3362	:	0.000000000000000	0.000000000000000;
	8	11016	:	0.000000000000000	0.000000000000000;
	8	11017	:	16.475890770943842	0.000000000000000;
	8	11724	:	112.544109229056062	0.000000000000000;
	9	3352	:	50.040687566290238	0.000000000000000;
	9	3353	:	40.687312433709764	0.000000000000000;
	9	3357	:	17.246000000000002	0.000000000000000;
	9	3358	:	0.000000000000000	0.000000000000000;
	9	3359	:	0.000000000000000	0.000000000000000;
	10	3353	:	60.159959691903815	0.000000000000000;
	10	3354	:	3.404000000000000	0.000000000000000;
	10	3355	:	0.000000000000000	0.000000000000000;
	10	3356	:	150.092040308096244	0.000000000000000;
	10	3359	:	26.345999999999997	0.000000000000000;
	11	11018	:	0.000000000000000	0.000000000000000;
	11	11019	:	0.000000000000000	0.000000000000000;
	11	11020	:	345.710974604419107	0.000000000000000;
	11	11022	:	267.243025395581014	0.000000000000000;
	11	11028	:	0.000000000000000	0.000000000000000;
	12	11181	:	99.751351361823311	0.000000000000000;
	12	11276	:	120.452567286434927	0.000000000000000;
	12	11278	:	0.000000000000000	0.000000000000000;
	12	11279	:	43.778081351741548	0.000000000000000;
	12	11286	:	0.000000000000000	0.000000000000000;
	13	10956	:	0.000000000000000	0.000000000000000;
	13	10961	:	0.000000000000000	0.000000000000000;
	13	10963	:	0.000000000000000	0.000000000000000;
	13	10965	:	210.977887155854802	0.000000000000000;
	13	11712	:	89.860112844144183	0.000000000000000;
	14	11106	:	74.698640047569782	0.000000000000000;
	14	11110	:	0.000000000000000	0.000000000000000;
	14	11114	:	0.000000000000000	0.000000000000000;
	14	11121	:	83.077359952430228	0.000000000000000;
	14	12522	:	0.000000000000000	0.000000000000000;
	15	11108	:	13.480076693263211	0.000000000000000;
	15	11118	:	140.835923306736788	0.000000000000000;
	15	11175	:	67.616000000000000	0.000000000000000;
	15	11176	:	0.000000000000000	0.000000000000000;
	15	11178	:	0.000000000000000	0.000000000000000;
	16	12516	:	0.000000000000000	0.000000000000000;
	16	12529	:	93.973586571179439	0.000000000000000;
	16	12532	:	31.902747564303507	0.000000000000000;
	16	12540	:	72.679665864516679	0.000000000000000;
	16	12543	:	0.000000000000000	0.000000000000000;
	17	3354	:	3.216000000000000	0.000000000000000;
	17	3355	:	84.382781874976502	0.000000000000000;
	17	12644	:	44.231218125023751	0.000000000000000;
	17	12645	:	0.000000000000000	0.000000000000000;
	17	12648	:	38.885999999999996	0.000000000000000;
	18	11160	:	37.075999999999993	0.000000000000000;
	18	11166	:	0.000000000000000	0.000000000000000;
	18	11167	:	0.000000000000000	0.000000000000000;
	18	12520	:	0.000000000000000	0.000000000000000;
	18	12521	:	0.000000000000000	0.000000000000000;
	19	11067	:	0.000000000000000	0.000000000000000;
	19	11078	:	0.000000000000000	0.000000000000000;
	19	11332	:	0.000000000000000	0.000000000000000;
	19	11333	:	3.510000000000000	0.000000000000000;
	19	11340	:	0.000000000000000	0.000000000000000;
	20	10149	:	0.000000000000000	0.000000000000000;
	20	10152	:	0.000000000000000	0.000000000000000;
	20	12527	:	0.000000000000000	0.000000000000000;
	20	12854	:	0.000000000000000	0.000000000000000;
	20	12857	:	4.050000000000000	0.000000000000000;
	21	11350	:	0.000000000000000	0.000000000000000;
	21	12614	:	40.000568425562570	0.000000000000000;
	21	12615	:	0.000000000000000	0.000000000000000;
	21	12616	:	0.000000000000000	0.000000000000000;
	21	12617	:	68.343431574437417	0.000000000000000;
	22	12564	:	0.000000000000000	0.000000000000000;
	22	12568	:	0.000000000000000	0.000000000000000;
	22	12575	:	0.000000000000000	0.000000000000000;
	22	12576	:	13.490000000000000	0.000000000000000;
	22	12577	:	4.822000000000000	0.000000000000000;
	23	12596	:	100.907638779960777	0.000000000000000;
	23	12606	:	41.836361220039223	0.000000000000000;
	23	12608	:	41.030000000000001	0.000000000000000;
	23	12619	:	0.000000000000000	0.000000000000000;
	23	12620	:	0.000000000000000	0.000000000000000;
	24	11103	:	65.197999999999993	0.000000000000000;
	24	11327	:	35.169999999999995	0.000000000000000;
	24	11328	:	0.000000000000000	0.000000000000000;
	24	11333	:	0.000000000000000	0.000000000000000;
	24	11341	:	0.000000000000000	0.000000000000000;
	25	11353	:	20.450000000000003	0.000000000000000;
	25	12232	:	0.000000000000000	0.000000000000000;
	25	12233	:	2.468000000000000	0.000000000000000;
	25	12241	:	0.000000000000000	0.000000000000000;
	25	12244	:	0.000000000000000	0.000000000000000;
	26	12777	:	463.080361246930920	0.000000000000000;
	26	12780	:	0.000000000000000	0.000000000000000;
	26	12910	:	0.000000000000000	0.000000000000000;
	26	12915	:	205.085638753069617	0.000000000000000;
	26	12916	:	0.000000000000000	0.000000000000000;
	27	1003	:	198.298452361383028	0.000000000000000;
	27	3825	:	0.000000000000000	0.000000000000000;
	27	3826	:	691.285547638619619	0.000000000000000;
	27	3828	:	0.000000000000000	0.000000000000000;
	27	11860	:	0.000000000000000	0.000000000000000;
	28	3827	:	6.048000000000000	0.000000000000000;
	28	11219	:	116.288000000000011	0.000000000000000;
	28	11221	:	119.990000000000023	0.000000000000000;
	28	11224	:	0.000000000000000	0.000000000000000;
	28	11227	:	107.725999999999999	0.000000000000000;
	29	3827	:	5.532000000000000	0.000000000000000;
	29	11219	:	100.048000000000002	0.000000000000000;
	29	11221	:	125.496000000000024	0.000000000000000;
	29	11224	:	0.000000000000000	0.000000000000000;
	29	11227	:	93.235999999999990	0.000000000000000;
	30	10242	:	8.150000000000000	0.000000000000000;
	30	10243	:	214.594065161486270	0.000000000000000;
	30	11203	:	366.504248378619423	0.000000000000000;
	30	11207	:	0.000000000000000	0.000000000000000;
	30	11216	:	278.433686459894602	0.000000000000000;
	31	11864	:	141.627213533588133	0.000000000000000;
	31	11866	:	93.933999999999997	0.000000000000000;
	31	11867	:	0.000000000000000	0.000000000000000;
	31	11868	:	0.000000000000000	0.000000000000000;
	31	11869	:	430.368786466411677	0.000000000000000;
	32	11298	:	305.514000000000124	0.000000000000000;
	32	11361	:	0.000000000000000	0.000000000000000;
	32	11362	:	0.000000000000000	0.000000000000000;
	32	11364	:	0.000000000000000	0.000000000000000;
	32	11365	:	19.697999999999997	0.000000000000000;
	33	11281	:	18.379837149407187	0.000000000000000;
	33	11285	:	14.613979380104071	0.000000000000000;
	33	11288	:	0.000000000000000	0.000000000000000;
	33	11817	:	35.174183470488735	0.000000000000000;
	33	11819	:	0.000000000000000	0.000000000000000;
	34	11298	:	7.188000000000000	0.000000000000000;
	34	11301	:	116.361833275514527	0.000000000000000;
	34	11311	:	105.047999999999988	0.000000000000000;
	34	11358	:	36.224037513009215	0.000000000000000;
	34	11823	:	10.368129211476061	0.000000000000000;
	35	10238	:	422.806644039918467	0.000000000000000;
	35	10248	:	0.000000000000000	0.000000000000000;
	35	11254	:	0.000000000000000	0.000000000000000;
	35	11259	:	0.000000000000000	0.000000000000000;
	35	11260	:	303.845355960081577	0.000000000000000;
	36	11314	:	0.000000000000000	0.000000000000000;
	36	12871	:	8.344000000000001	0.000000000000000;
	36	12912	:	12.346000000000000	0.000000000000000;
	36	12913	:	0.000000000000000	0.000000000000000;
	36	12918	:	28.579999999999998	0.000000000000000;
	37	10625	:	101.202061418358440	0.000000000000000;
	37	11065	:	319.631061912380176	0.000000000000000;
	37	11271	:	0.000000000000000	0.000000000000000;
	37	12801	:	240.048876669262000	0.000000000000000;
	37	12815	:	0.000000000000000	0.000000000000000;
	38	11059	:	219.960380897983271	0.000000000000000;
	38	11060	:	0.000000000000000	0.000000000000000;
	38	11061	:	83.716777099199646	0.000000000000000;
	38	11066	:	0.000000000000000	0.000000000000000;
	38	12314	:	69.104842002817335	0.000000000000000;
	39	3493	:	0.000000000000000	0.000000000000000;
	39	3497	:	145.548561560509512	0.000000000000000;
	39	10626	:	194.138949603913829	0.000000000000000;
	39	10629	:	0.000000000000000	0.000000000000000;
	39	10631	:	282.598488835576745	0.000000000000000;
	40	10624	:	0.000000000000000	0.000000000000000;
	40	12499	:	94.094105919084768	0.000000000000000;
	40	12500	:	73.104000000000013	0.000000000000000;
	40	12501	:	169.369894080914975	0.000000000000000;
	40	12511	:	0.000000000000000	0.000000000000000;
	41	11059	:	4.134000000000000	0.000000000000000;
	41	11060	:	0.000000000000000	0.000000000000000;
	41	11061	:	98.469999999999999	0.000000000000000;
	41	11066	:	0.000000000000000	0.000000000000000;
	41	11294	:	161.528000000000020	0.000000000000000;
	42	10242	:	8.066000000000001	0.000000000000000;
	42	10243	:	56.215999999999994	0.000000000000000;
	42	10250	:	29.676000000000002	0.000000000000000;
	42	10251	:	0.000000000000000	0.000000000000000;
	42	11203	:	134.264000000000010	0.000000000000000;
	43	10235	:	645.650809930432956	0.000000000000000;
	43	10237	:	0.000000000000000	0.000000000000000;
	43	10238	:	197.885093565513245	0.000000000000000;
	43	10245	:	0.000000000000000	0.000000000000000;
	43	10246	:	251.622096504055179	0.000000000000000;
	44	10872	:	0.000000000000000	0.000000000000000;
	44	10874	:	0.000000000000000	0.000000000000000;
	44	10875	:	0.000000000000000	0.000000000000000;
	44	10876	:	258.277967782945552	0.000000000000000;
	44	12143	:	88.894032217054985	0.000000000000000;
	45	12457	:	7.272000000000000	0.000000000000000;
	45	12458	:	0.000000000000000	0.000000000000000;
	45	12466	:	0.000000000000000	0.000000000000000;
	45	12469	:	0.000000000000000	0.000000000000000;
	45	12483	:	26.975999999999999	0.000000000000000;
	46	3512	:	0.000000000000000	0.000000000000000;
	46	3513	:	157.503262663999493	0.000000000000000;
	46	3514	:	168.586429253580974	0.000000000000000;
	46	3515	:	0.000000000000000	0.000000000000000;
	46	10292	:	235.988308082420048	0.000000000000000;
	47	12460	:	257.914269435929100	0.000000000000000;
	47	12461	:	0.000000000000000	0.000000000000000;
	47	12463	:	0.000000000000000	0.000000000000000;
	47	12481	:	0.000000000000000	0.000000000000000;
	47	12491	:	307.531730564070926	0.000000000000000;
	48	11036	:	0.000000000000000	0.000000000000000;
	48	12368	:	0.000000000000000	0.000000000000000;
	48	12371	:	116.398965585332363	0.000000000000000;
	48	12372	:	131.451999999999998	0.000000000000000;
	48	12385	:	220.883034414667577	0.000000000000000;
	49	12367	:	290.847857924585810	0.000000000000000;
	49	12377	:	0.000000000000000	0.000000000000000;
	49	12459	:	0.000000000000000	0.000000000000000;
	49	12464	:	0.000000000000000	0.000000000000000;
	49	12465	:	135.318142075414499	0.000000000000000;
	50	3376	:	41.250759377898433	0.000000000000000;
	50	3377	:	0.000000000000000	0.000000000000000;
	50	3499	:	38.415734908068522	0.000000000000000;
	50	10290	:	44.755505714033013	0.000000000000000;
	50	10291	:	0.000000000000000	0.000000000000000;
	51	3860	:	100.537122897051120	0.000000000000000;
	51	3861	:	0.000000000000000	0.000000000000000;
	51	10615	:	15.515175439089576	0.000000000000000;
	51	11034	:	109.754788332417959	0.000000000000000;
	51	11045	:	106.634913331441709	0.000000000000000;
	52	3492	:	0.000000000000000	0.000000000000000;
	52	3494	:	87.310000000000031	0.000000000000000;
	52	3495	:	172.662286153157339	0.000000000000000;
	52	3496	:	0.000000000000000	0.000000000000000;
	52	11045	:	185.643713846842701	0.000000000000000;
	53	7575	:	16.407535794900049	0.000000000000000;
	53	7576	:	31.910464205099956	0.000000000000000;
	53	8056	:	0.000000000000000	0.000000000000000;
	53	8060	:	0.000000000000000	0.000000000000000;
	53	8062	:	4.524000000000000	0.000000000000000;
	54	9542	:	201.988349018094851	0.000000000000000;
	54	9550	:	0.000000000000000	0.000000000000000;
	54	9551	:	0.000000000000000	0.000000000000000;
	54	9563	:	14.251650981904715	0.000000000000000;
	54	9564	:	0.000000000000000	0.000000000000000;
	55	8041	:	0.000000000000000	0.000000000000000;
	55	8042	:	0.000000000000000	0.000000000000000;
	55	8046	:	49.207424091325862	0.000000000000000;
	55	8047	:	20.832000000000001	0.000000000000000;
	55	11095	:	765.376575908675363	0.000000000000000;
	56	6476	:	4.921064158166858	0.000000000000000;
	56	8047	:	75.087778231916133	0.000000000000000;
	56	8048	:	0.000000000000000	0.000000000000000;
	56	8053	:	58.145157609916751	0.000000000000000;
	56	8054	:	0.000000000000000	0.000000000000000;
	57	8043	:	0.000000000000000	0.000000000000000;
	57	8045	:	58.361674106529087	0.000000000000000;
	57	8049	:	105.146164872351264	0.000000000000000;
	57	8245	:	0.000000000000000	0.000000000000000;
	57	8248	:	64.766161021119174	0.000000000000000;
	58	7572	:	129.965512791939517	0.000000000000000;
	58	8761	:	16.416000000000000	0.000000000000000;
	58	8762	:	0.000000000000000	0.000000000000000;
	58	9561	:	0.000000000000000	0.000000000000000;
	58	9562	:	85.872487208060846	0.000000000000000;
	59	8044	:	48.433967611317080	0.000000000000000;
	59	8244	:	17.795999999999999	0.000000000000000;
	59	9825	:	76.194032388683013	0.000000000000000;
	59	9827	:	0.000000000000000	0.000000000000000;
	59	11080	:	0.000000000000000	0.000000000000000;
	60	9604	:	15.796000000000001	0.000000000000000;
	60	9813	:	23.251999999999999	0.000000000000000;
	60	9819	:	0.000000000000000	0.000000000000000;
	60	9820	:	0.000000000000000	0.000000000000000;
	60	10137	:	41.329999999999998	0.000000000000000;
	61	1061	:	0.000000000000000	0.000000000000000;
	61	9781	:	0.000000000000000	0.000000000000000;
	61	9786	:	34.755763766115336	0.000000000000000;
	61	9871	:	0.000000000000000	0.000000000000000;
	61	9872	:	138.670236233884197	0.000000000000000;
	62	3645	:	26.406000000000002	0.000000000000000;
	62	3646	:	0.000000000000000	0.000000000000000;
	62	9604	:	101.670000000000016	0.000000000000000;
	62	9870	:	58.362079512868490	0.000000000000000;
	62	9872	:	9.385920487131489	0.000000000000000;
	63	9041	:	0.000000000000000	0.000000000000000;
	63	9043	:	2.688000000000000	0.000000000000000;
	63	9045	:	0.000000000000000	0.000000000000000;
	63	9046	:	0.000000000000000	0.000000000000000;
	63	9879	:	102.227999999999980	0.000000000000000;
	64	3586	:	0.000000000000000	0.000000000000000;
	64	9043	:	2.508000000000000	0.000000000000000;
	64	9044	:	25.441825537124299	0.000000000000000;
	64	9046	:	60.620075418311309	0.000000000000000;
	64	9047	:	25.618099044564424	0.000000000000000;
	65	9873	:	63.779647246918572	0.000000000000000;
	65	9876	:	0.000000000000000	0.000000000000000;
	65	9971	:	219.645098539000571	0.000000000000000;
	65	9982	:	0.000000000000000	0.000000000000000;
	65	9990	:	5.823254214081302	0.000000000000000;
	66	9360	:	162.633833410560385	0.000000000000000;
	66	9873	:	96.660166589440308	0.000000000000000;
	66	9974	:	0.000000000000000	0.000000000000000;
	66	9977	:	0.000000000000000	0.000000000000000;
	66	9981	:	0.000000000000000	0.000000000000000;
	67	8743	:	2.052000000000000	0.000000000000000;
	67	9359	:	0.000000000000000	0.000000000000000;
	67	9647	:	0.000000000000000	0.000000000000000;
	67	9879	:	114.198551882564487	0.000000000000000;
	67	10059	:	128.669448117435252	0.000000000000000;
	68	7553	:	609.318276516599099	0.000000000000000;
	68	8745	:	0.000000000000000	0.000000000000000;
	68	8747	:	0.000000000000000	0.000000000000000;
	68	9360	:	527.721723483400865	0.000000000000000;
	68	9361	:	0.000000000000000	0.000000000000000;
	69	8259	:	138.178503799440989	0.000000000000000;
	69	8284	:	0.000000000000000	0.000000000000000;
	69	9317	:	176.056183024572960	0.000000000000000;
	69	9318	:	19.733313175986247	0.000000000000000;
	69	9319	:	0.000000000000000	0.000000000000000;
	70	8160	:	71.174000000000007	0.000000000000000;
	70	8240	:	0.000000000000000	0.000000000000000;
	70	8260	:	0.000000000000000	0.000000000000000;
	70	8261	:	65.284000000000006	0.000000000000000;
	70	8263	:	0.000000000000000	0.000000000000000;
	71	8255	:	0.000000000000000	0.000000000000000;
	71	8256	:	23.558025646148749	0.000000000000000;
	71	8257	:	0.000000000000000	0.000000000000000;
	71	8259	:	2.442000000000000	0.000000000000000;
	71	8264	:	81.803974353851345	0.000000000000000;
	72	8254	:	2.160000000000000	0.000000000000000;
	72	8748	:	0.000000000000000	0.000000000000000;
	72	8749	:	25.962000000000000	0.000000000000000;
	72	8753	:	0.000000000000000	0.000000000000000;
	72	8759	:	19.539999999999999	0.000000000000000;
	73	8146	:	0.000000000000000	0.000000000000000;
	73	8147	:	0.000000000000000	0.000000000000000;
	73	8148	:	103.827999999999989	0.000000000000000;
	73	8149	:	146.313999999999993	0.000000000000000;
	73	8157	:	0.000000000000000	0.000000000000000;
	74	8161	:	0.000000000000000	0.000000000000000;
	74	8162	:	57.761694987576000	0.000000000000000;
	74	8165	:	0.000000000000000	0.000000000000000;
	74	8166	:	107.566305012423939	0.000000000000000;
	74	8223	:	0.000000000000000	0.000000000000000;
	75	8218	:	0.000000000000000	0.000000000000000;
	75	8220	:	176.310132791149044	0.000000000000000;
	75	8224	:	135.615867208850972	0.000000000000000;
	75	8226	:	0.000000000000000	0.000000000000000;
	75	8227	:	0.000000000000000	0.000000000000000;
	76	7564	:	44.362000000000009	0.000000000000000;
	76	8717	:	73.518000000000001	0.000000000000000;
	76	9335	:	0.000000000000000	0.000000000000000;
	76	9340	:	35.277999999999992	0.000000000000000;
	76	9342	:	0.000000000000000	0.000000000000000;
	77	8743	:	47.383899303314415	0.000000000000000;
	77	9980	:	0.000000000000000	0.000000000000000;
	77	9987	:	0.000000000000000	0.000000000000000;
	77	9988	:	103.240100696685445	0.000000000000000;
	77	9989	:	0.000000000000000	0.000000000000000;
	78	9311	:	9.672000000000001	0.000000000000000;
	78	9312	:	56.153794634663505	0.000000000000000;
	78	9538	:	0.000000000000000	0.000000000000000;
	78	9544	:	0.000000000000000	0.000000000000000;
	78	9546	:	127.030205365336485	0.000000000000000;
	79	9555	:	81.397618815708952	0.000000000000000;
	79	9558	:	0.000000000000000	0.000000000000000;
	79	9567	:	112.382410331069849	0.000000000000000;
	79	9568	:	41.275970853221267	0.000000000000000;
	79	9569	:	0.000000000000000	0.000000000000000;
	80	8264	:	17.772144608972699	0.000000000000000;
	80	8265	:	67.415650753175257	0.000000000000000;
	80	9206	:	0.000000000000000	0.000000000000000;
	80	9209	:	101.956349246824729	0.000000000000000;
	80	9603	:	82.071855391027327	0.000000000000000;
	81	7933	:	86.818000000000012	0.000000000000000;
	81	8179	:	0.000000000000000	0.000000000000000;
	81	8182	:	0.000000000000000	0.000000000000000;
	81	9207	:	57.574853261589929	0.000000000000000;
	81	9208	:	138.615146738410090	0.000000000000000;
	82	1043	:	0.000000000000000	0.000000000000000;
	82	8168	:	0.000000000000000	0.000000000000000;
	82	8171	:	17.010000000000002	0.000000000000000;
	82	8174	:	0.000000000000000	0.000000000000000;
	82	8180	:	0.000000000000000	0.000000000000000;
	83	10326	:	0.000000000000000	0.000000000000000;
	83	10878	:	22.537713667042077	0.000000000000000;
	83	10880	:	118.586778599713796	0.000000000000000;
	83	10881	:	71.347507733244072	0.000000000000000;
	83	10885	:	0.000000000000000	0.000000000000000;
	84	10321	:	118.010050444337097	0.000000000000000;
	84	10323	:	0.000000000000000	0.000000000000000;
	84	10330	:	0.000000000000000	0.000000000000000;
	84	10750	:	233.785949555663194	0.000000000000000;
	84	10751	:	0.000000000000000	0.000000000000000;
	85	1087	:	6.805911562467910	0.000000000000000;
	85	10324	:	14.962075467347898	0.000000000000000;
	85	10325	:	0.000000000000000	0.000000000000000;
	85	10742	:	23.065111733578707	0.000000000000000;
	85	10878	:	35.216901236605501	0.000000000000000;
	86	10883	:	0.000000000000000	0.000000000000000;
	86	10887	:	0.000000000000000	0.000000000000000;
	86	11987	:	98.267985199115515	0.000000000000000;
	86	11990	:	47.806014800884569	0.000000000000000;
	86	12003	:	0.000000000000000	0.000000000000000;
	87	11988	:	131.839652967887758	0.000000000000000;
	87	11991	:	72.720255848530215	0.000000000000000;
	87	11993	:	72.415547146875937	0.000000000000000;
	87	11998	:	0.000000000000000	0.000000000000000;
	87	12004	:	11.734544036706421	0.000000000000000;
	88	3309	:	24.517947212085819	0.000000000000000;
	88	3310	:	2.966000000000000	0.000000000000000;
	88	10316	:	0.000026773990870	0.000000000000000;
	88	10318	:	10.399639115044332	0.000000000000000;
	88	10320	:	30.832386898879054	0.000000000000000;
	89	11113	:	0.000000000000000	0.000000000000000;
	89	11116	:	30.881915558951878	0.000000000000000;
	89	11117	:	3.051962585064037	0.000000000000000;
	89	11122	:	15.682084441048119	0.000000000000000;
	89	11123	:	0.000037414935959	0.000000000000000;
	90	11000	:	78.840148703529906	0.000000000000000;
	90	11007	:	91.526295270380729	0.000000000000000;
	90	11986	:	0.000000000000000	0.000000000000000;
	90	11987	:	59.501556026089446	0.000000000000000;
	90	11988	:	21.752000000000002	0.000000000000000;
	91	3315	:	7.951739374150763	0.000000000000000;
	91	3316	:	0.000000000000000	0.000000000000000;
	91	3317	:	37.474321382213247	0.000000000000000;
	91	10316	:	17.242999443517810	0.000000000000000;
	91	10318	:	39.278939800118138	0.000000000000000;
	92	10747	:	14.038620999670993	0.000000000000000;
	92	11133	:	2.220013999953099	0.000000000000000;
	92	11134	:	7.209297182739672	0.000000000000000;
	92	11136	:	0.000000000000000	0.000000000000000;
	92	12249	:	3.556067817636216	0.000000000000000;
	93	12252	:	0.000000000000000	0.000000000000000;
	93	12253	:	211.456693194295809	0.000000000000000;
	93	12270	:	77.230261823595242	0.000000000000000;
	93	12337	:	137.787044982109336	0.000000000000000;
	93	12345	:	0.000000000000000	0.000000000000000;
	94	3321	:	28.129999999999999	0.000000000000000;
	94	3322	:	331.716837468670008	0.000000000000000;
	94	3325	:	433.721162531329867	0.000000000000000;
	94	3326	:	0.000000000000000	0.000000000000000;
	94	3327	:	0.000000000000000	0.000000000000000;
	95	3321	:	25.149999999999999	0.000000000000000;
	95	3322	:	117.869976879836486	0.000000000000000;
	95	3325	:	163.515433649517888	0.000000000000000;
	95	3326	:	0.000000000000000	0.000000000000000;
	95	3330	:	52.460589470645992	0.000000000000000;
	96	10760	:	0.000000000000000	0.000000000000000;
	96	11123	:	0.000026651399337	0.000000000000000;
	96	11124	:	10.564026479771199	0.000000000000000;
	96	11734	:	0.000000000000000	0.000000000000000;
	96	11736	:	4.333946868829460	0.000000000000000;
	97	10760	:	0.002405270401396	0.000000000000000;
	97	10890	:	0.000000000000000	0.000000000000000;
	97	10891	:	68.606011347537333	0.000000000000000;
	97	11113	:	246.785583382060793	0.000000000000000;
	97	11123	:	0.000000000000000	0.000000000000000;
	98	10893	:	4.014000000000000	0.000000000000000;
	98	10905	:	143.718483847895527	0.000000000000000;
	98	11718	:	63.373516152104088	0.000000000000000;
	98	11719	:	0.000000000000000	0.000000000000000;
	98	11723	:	0.000000000000000	0.000000000000000;
	99	10902	:	91.707818711640527	0.000000000000000;
	99	10907	:	5.816387609909945	0.000000000000000;
	99	10958	:	0.000000000000000	0.000000000000000;
	99	10959	:	0.000000000000000	0.000000000000000;
	99	11718	:	34.685793678449429	0.000000000000000;
	100	3386	:	6.875217758909503	0.000000000000000;
	100	3387	:	15.419844872673796	0.000000000000000;
	100	3388	:	44.940026357179740	0.000000000000000;
	100	3854	:	26.516911011236996	0.000000000000000;
	100	10159	:	0.000000000000000	0.000000000000000;
	101	3845	:	76.440602148472834	0.000000000000000;
	101	10762	:	0.000000000000000	0.000000000000000;
	101	10767	:	39.276057111308894	0.000000000000000;
	101	10768	:	35.109554155732013	0.000000000000000;
	101	10769	:	96.867786584486424	0.000000000000000;
	102	3333	:	0.000000000000000	0.000000000000000;
	102	11541	:	328.668206070647557	0.000000000000000;
	102	11542	:	0.000000000000000	0.000000000000000;
	102	11543	:	0.000000000000000	0.000000000000000;
	102	11544	:	149.901793929350958	0.000000000000000;
	103	3329	:	67.525055014032276	0.000000000000000;
	103	3331	:	0.000000000000000	0.000000000000000;
	103	3332	:	0.000000000000000	0.000000000000000;
	103	3334	:	35.202944985967740	0.000000000000000;
	103	3335	:	0.000000000000000	0.000000000000000;
	104	10898	:	0.000000000000000	0.000000000000000;
	104	10901	:	257.070616364847922	0.000000000000000;
	104	10904	:	75.984803919815135	0.000000000000000;
	104	10906	:	275.408441983781813	0.000000000000000;
	104	12546	:	237.566137731553710	0.000000000000000;
	105	3373	:	0.000000000000000	0.000000000000000;
	105	3374	:	64.479606726361212	0.000000000000000;
	105	10759	:	15.612824760420626	0.000000000000000;
	105	12528	:	53.762470433557006	0.000000000000000;
	105	12530	:	31.309098079661119	0.000000000000000;
	106	10893	:	37.971317377651566	0.000000000000000;
	106	10900	:	0.000000000000000	0.000000000000000;
	106	10901	:	127.537184918288787	0.000000000000000;
	106	10904	:	72.849497704059218	0.000000000000000;
	106	10905	:	5.928000000000000	0.000000000000000;
	107	12546	:	146.502054214489732	0.000000000000000;
	107	12553	:	0.000000000000000	0.000000000000000;
	107	12583	:	129.065364289344814	0.000000000000000;
	107	12636	:	381.636581496165149	0.000000000000000;
	107	12637	:	0.000000000000000	0.000000000000000;
	108	10896	:	0.000000000000000	0.000000000000000;
	108	11071	:	0.000000000000000	0.000000000000000;
	108	12772	:	120.002229799191184	0.000000000000000;
	108	12773	:	260.341770200807673	0.000000000000000;
	108	12784	:	0.000000000000000	0.000000000000000;
	109	10189	:	33.913868345612840	0.000000000000000;
	109	10195	:	51.044000000000004	0.000000000000000;
	109	10201	:	4.372000000000000	0.000000000000000;
	109	10206	:	48.799999999999997	0.000000000000000;
	109	10990	:	114.358131654387506	0.000000000000000;
	110	10191	:	0.000000000000000	0.000000000000000;
	110	10200	:	1032.326397836480055	0.000000000000000;
	110	10201	:	4.142000000000000	0.000000000000000;
	110	10991	:	450.370612763245447	0.000000000000000;
	110	11074	:	588.972989400274855	0.000000000000000;
	111	3347	:	12.004151413305415	0.000000000000000;
	111	11567	:	153.120597454786065	0.000000000000000;
	111	11568	:	0.000000000000000	0.000000000000000;
	111	11574	:	293.513251131909385	0.000000000000000;
	111	11575	:	0.000000000000000	0.000000000000000;
	112	3367	:	254.984866403217382	0.000000000000000;
	112	10966	:	513.926311499118242	0.000000000000000;
	112	11672	:	30.027941405109303	0.000000000000000;
	112	11675	:	0.000000000000000	0.000000000000000;
	112	11678	:	319.308880692556954	0.000000000000000;
	113	10986	:	35.836095547841083	0.000000000000000;
	113	11615	:	25.219904452158953	0.000000000000000;
	113	11673	:	0.000000000000000	0.000000000000000;
	113	11689	:	0.000000000000000	0.000000000000000;
	113	11690	:	90.046000000000006	0.000000000000000;
	114	3369	:	46.563817513663999	0.000000000000000;
	114	10281	:	0.000000000000000	0.000000000000000;
	114	10282	:	0.000000000000000	0.000000000000000;
	114	10285	:	246.117253585508706	0.000000000000000;
	114	10286	:	338.086928900827672	0.000000000000000;
	115	3830	:	0.000000000000000	0.000000000000000;
	115	3835	:	187.228063306267813	0.000000000000000;
	115	3836	:	239.678474309606884	0.000000000000000;
	115	10972	:	191.691308280118875	0.000000000000000;
	115	10980	:	76.066154104005676	0.000000000000000;
	116	10973	:	222.377774039285697	0.000000000000000;
	116	10975	:	0.000000000000000	0.000000000000000;
	116	10976	:	0.000000000000000	0.000000000000000;
	116	10977	:	244.624935382089717	0.000000000000000;
	116	10978	:	85.601290578624855	0.000000000000000;
	117	10160	:	96.793846098589171	0.000000000000000;
	117	10161	:	0.000000000000000	0.000000000000000;
	117	12012	:	0.000000000000000	0.000000000000000;
	117	12013	:	0.000000000000000	0.000000000000000;
	117	12014	:	118.072153901410815	0.000000000000000;
	118	3329	:	0.000000000000000	0.000000000000000;
	118	11855	:	170.748615331217707	0.000000000000000;
	118	12011	:	0.000000000000000	0.000000000000000;
	118	12638	:	204.659010857954655	0.000000000000000;
	118	12640	:	72.128373810827568	0.000000000000000;
	119	10914	:	135.319248206059655	0.000000000000000;
	119	10919	:	0.000000000000000	0.000000000000000;
	119	10920	:	207.888751793940315	0.000000000000000;
	119	10924	:	0.000000000000000	0.000000000000000;
	119	10925	:	0.000000000000000	0.000000000000000;
	120	3349	:	5.768000000000000	0.000000000000000;
	120	3350	:	0.000000000000000	0.000000000000000;
	120	10912	:	197.461769653613118	0.000000000000000;
	120	10916	:	389.535426712815649	0.000000000000000;
	120	11127	:	274.904803633571362	0.000000000000000;
	121	3840	:	0.000000000000000	0.000000000000000;
	121	3842	:	325.995519029783964	0.000000000000000;