~ iterations = 1633 objvalue = 20817230.343284081667662 relgap = 0.000000998963687
~ totalcost = 21275593.994184818118811
<NUMBER OF NODES>	12981
<NUMBER OF LINKS>	28376
<END OF METADATA>

~	Tail	Head	:	Volume	Cost	;
	1	11000	:	17.215999999999998	0.000000000000000;
	1	11007	:	4.036000000000000	0.000000000000000;
	1	11704	:	2.787000000000000	0.000000000000000;
	1	11708	:	6.931999999999999	0.000000000000000;
	1	11717	:	0.000000000000000	0.000000000000000;
	2	10892	:	230.754183929363592	0.000000000000000;
	2	10895	:	0.000000000000000	0.000000000000000;
	2	11707	:	208.152816070636476	0.000000000000000;
	2	11711	:	0.000000000000000	0.000000000000000;
	2	11714	:	6.615000000000000	0.000000000000000;
	3	3336	:	2.148330366590090	0.000000000000000;
	3	3361	:	5.691000000000000	0.000000000000000;
	3	10256	:	14.826000000000001	0.000000000000000;
	3	11293	:	27.957669633409900	0.000000000000000;
	3	12313	:	1.339000000000000	0.000000000000000;
	4	12363	:	0.000000000000000	0.000000000000000;
	4	12685	:	10.923999999999999	0.000000000000000;
	4	12690	:	1.180000000000000	0.000000000000000;
	4	12799	:	0.000000000000000	0.000000000000000;
	4	12800	:	0.000000000000000	0.000000000000000;
	5	11696	:	0.000000000000000	0.000000000000000;
	5	11697	:	36.778000000000006	0.000000000000000;
	5	11698	:	36.081999999999994	0.000000000000000;
	5	11714	:	47.492977048294264	0.000000000000000;
	5	11725	:	47.005022951705740	0.000000000000000;
	6	11016	:	0.000000000000000	0.000000000000000;
	6	11017	:	4.295999999999999	0.000000000000000;
	6	11695	:	13.847000000000001	0.000000000000000;
	6	11717	:	0.000000000000000	0.000000000000000;
	6	11724	:	27.631000000000000	0.000000000000000;
	7	3365	:	2.421000000000000	0.000000000000000;
	7	10957	:	0.000000000000000	0.000000000000000;
	7	11375	:	108.186999999999983	0.000000000000000;
	7	11744	:	0.000000000000000	0.000000000000000;
	7	12515	:	48.118000000000002	0.000000000000000;
	8	3361	:	1.326000000000000	0.000000000000000;
	8	3362	:	0.000000000000000	0.000000000000000;
	8	11016	:	0.000000000000000	0.000000000000000;
	8	11017	:	6.753000000000000	0.000000000000000;
	8	11724	:	57.757000000000012	0.000000000000000;
	9	3352	:	26.169000000000000	0.000000000000000;
	9	3353	:	19.194999999999997	0.000000000000000;
	9	3357	:	8.623000000000001	0.000000000000000;
	9	3358	:	0.000000000000000	0.000000000000000;
	9	3359	:	0.000000000000000	0.000000000000000;
	10	3353	:	28.607999999999997	0.000000000000000;
	10	3354	:	1.702000000000000	0.000000000000000;
	10	3355	:	0.000000000000000	0.000000000000000;
	10	3356	:	76.517999999999986	0.000000000000000;
	10	3359	:	13.172999999999998	0.000000000000000;
	11	11018	:	0.000000000000000	0.000000000000000;
	11	11019	:	0.000000000000000	0.000000000000000;
	11	11020	:	153.547450131053068	0.000000000000000;
	11	11022	:	152.929549868946964	0.000000000000000;
	11	11028	:	0.000000000000000	0.000000000000000;
	12	11181	:	42.558732445888751	0.000000000000000;
	12	11276	:	66.437267554111358	0.000000000000000;
	12	11278	:	0.000000000000000	0.000000000000000;
	12	11279	:	22.995000000000005	0.000000000000000;
	12	11286	:	0.000000000000000	0.000000000000000;
	13	10956	:	0.000000000000000	0.000000000000000;
	13	10961	:	0.000000000000000	0.000000000000000;
	13	10963	:	0.000000000000000	0.000000000000000;
	13	10965	:	107.332000000000008	0.000000000000000;
	13	11712	:	43.086999999999989	0.000000000000000;
	14	11106	:	37.348292645471069	0.000000000000000;
	14	11110	:	0.000000000000000	0.000000000000000;
	14	11114	:	0.000000000000000	0.000000000000000;
	14	11121	:	41.539707354528936	0.000000000000000;
	14	12522	:	0.000000000000000	0.000000000000000;
	15	11108	:	6.740000000000000	0.000000000000000;
	15	11118	:	70.418000000000021	0.000000000000000;
	15	11175	:	33.808000000000000	0.000000000000000;
	15	11176	:	0.000000000000000	0.000000000000000;
	15	11178	:	0.000000000000000	0.000000000000000;
	16	12516	:	0.000000000000000	0.000000000000000;
	16	12529	:	49.338914346619823	0.000000000000000;
	16	12532	:	17.594085653380212	0.000000000000000;
	16	12540	:	32.344999999999999	0.000000000000000;
	16	12543	:	0.000000000000000	0.000000000000000;
	17	3354	:	1.608000000000000	0.000000000000000;
	17	3355	:	42.192077764253099	0.000000000000000;
	17	12644	:	22.114922235746938	0.000000000000000;
	17	12645	:	0.000000000000000	0.000000000000000;
	17	12648	:	19.442999999999998	0.000000000000000;
	18	11160	:	18.537999999999997	0.000000000000000;
	18	11166	:	0.000000000000000	0.000000000000000;
	18	11167	:	0.000000000000000	0.000000000000000;
	18	12520	:	0.000000000000000	0.000000000000000;
	18	12521	:	0.000000000000000	0.000000000000000;
	19	11067	:	0.000000000000000	0.000000000000000;
	19	11078	:	0.000000000000000	0.000000000000000;
	19	11332	:	0.000000000000000	0.000000000000000;
	19	11333	:	1.755000000000000	0.000000000000000;
	19	11340	:	0.000000000000000	0.000000000000000;
	20	10149	:	0.000000000000000	0.000000000000000;
	20	10152	:	0.000000000000000	0.000000000000000;
	20	12527	:	0.000000000000000	0.000000000000000;
	20	12854	:	0.000000000000000	0.000000000000000;
	20	12857	:	2.025000000000000	0.000000000000000;
	21	11350	:	0.000000000000000	0.000000000000000;
	21	12614	:	20.000083023671184	0.000000000000000;
	21	12615	:	0.000000000000000	0.000000000000000;
	21	12616	:	0.000000000000000	0.000000000000000;
	21	12617	:	34.171916976328781	0.000000000000000;
	22	12564	:	0.000000000000000	0.000000000000000;
	22	12568	:	0.000000000000000	0.000000000000000;
	22	12575	:	0.000000000000000	0.000000000000000;
	22	12576	:	6.745000000000000	0.000000000000000;
	22	12577	:	2.411000000000000	0.000000000000000;
	23	12596	:	44.994999999999997	0.000000000000000;
	23	12606	:	26.377000000000002	0.000000000000000;
	23	12608	:	20.515000000000001	0.000000000000000;
	23	12619	:	0.000000000000000	0.000000000000000;
	23	12620	:	0.000000000000000	0.000000000000000;
	24	11103	:	32.598999999999997	0.000000000000000;
	24	11327	:	17.584999999999997	0.000000000000000;
	24	11328	:	0.000000000000000	0.000000000000000;
	24	11333	:	0.000000000000000	0.000000000000000;
	24	11341	:	0.000000000000000	0.000000000000000;
	25	11353	:	10.225000000000001	0.000000000000000;
	25	12232	:	0.000000000000000	0.000000000000000;
	25	12233	:	1.234000000000000	0.000000000000000;
	25	12241	:	0.000000000000000	0.000000000000000;
	25	12244	:	0.000000000000000	0.000000000000000;
	26	12777	:	228.412000000000035	0.000000000000000;
	26	12780	:	0.000000000000000	0.000000000000000;
	26	12910	:	0.000000000000000	0.000000000000000;
	26	12915	:	105.671000000000006	0.000000000000000;
	26	12916	:	0.000000000000000	0.000000000000000;
	27	1003	:	87.288999999999987	0.000000000000000;
	27	3825	:	0.000000000000000	0.000000000000000;
	27	3826	:	357.502999999999929	0.000000000000000;
	27	3828	:	0.000000000000000	0.000000000000000;
	27	11860	:	0.000000000000000	0.000000000000000;
	28	3827	:	3.024000000000000	0.000000000000000;
	28	11219	:	58.144000000000005	0.000000000000000;
	28	11221	:	59.995000000000012	0.000000000000000;
	28	11224	:	0.000000000000000	0.000000000000000;
	28	11227	:	53.863000000000000	0.000000000000000;
	29	3827	:	2.766000000000000	0.000000000000000;
	29	11219	:	50.024000000000001	0.000000000000000;
	29	11221	:	62.748000000000012	0.000000000000000;
	29	11224	:	0.000000000000000	0.000000000000000;
	29	11227	:	46.617999999999995	0.000000000000000;
	30	10242	:	4.075000000000000	0.000000000000000;
	30	10243	:	104.949000000000012	0.000000000000000;
	30	11203	:	193.794409667887521	0.000000000000000;
	30	11207	:	0.000000000000000	0.000000000000000;
	30	11216	:	131.022590332112486	0.000000000000000;
	31	11864	:	70.812999999999988	0.000000000000000;
	31	11866	:	46.966999999999999	0.000000000000000;
	31	11867	:	0.000000000000000	0.000000000000000;
	31	11868	:	0.000000000000000	0.000000000000000;
	31	11869	:	215.185000000000031	0.000000000000000;
	32	11298	:	152.757000000000062	0.000000000000000;
	32	11361	:	0.000000000000000	0.000000000000000;
	32	11362	:	0.000000000000000	0.000000000000000;
	32	11364	:	0.000000000000000	0.000000000000000;
	32	11365	:	9.848999999999998	0.000000000000000;
	33	11281	:	6.976000000000000	0.000000000000000;
	33	11285	:	6.186000000000000	0.000000000000000;
	33	11288	:	0.000000000000000	0.000000000000000;
	33	11817	:	20.921999999999997	0.000000000000000;
	33	11819	:	0.000000000000000	0.000000000000000;
	34	11298	:	3.594000000000000	0.000000000000000;
	34	11301	:	58.180999999999997	0.000000000000000;
	34	11311	:	52.523999999999994	0.000000000000000;
	34	11358	:	18.112000000000002	0.000000000000000;
	34	11823	:	5.184000000000000	0.000000000000000;
	35	10238	:	217.599000000000075	0.000000000000000;
	35	10248	:	0.000000000000000	0.000000000000000;
	35	11254	:	0.000000000000000	0.000000000000000;
	35	11259	:	0.000000000000000	0.000000000000000;
	35	11260	:	145.726999999999975	0.000000000000000;
	36	11314	:	0.000000000000000	0.000000000000000;
	36	12871	:	4.172000000000001	0.000000000000000;
	36	12912	:	6.173000000000000	0.000000000000000;
	36	12913	:	0.000000000000000	0.000000000000000;
	36	12918	:	14.289999999999999	0.000000000000000;
	37	10625	:	50.601000000000006	0.000000000000000;
	37	11065	:	174.252000000000010	0.000000000000000;
	37	11271	:	0.000000000000000	0.000000000000000;
	37	12801	:	105.588000000000008	0.000000000000000;
	37	12815	:	0.000000000000000	0.000000000000000;
	38	11059	:	116.525000000000034	0.000000000000000;
	38	11060	:	0.000000000000000	0.000000000000000;
	38	11061	:	36.622000000000000	0.000000000000000;
	38	11066	:	0.000000000000000	0.000000000000000;
	38	12314	:	33.243999999999993	0.000000000000000;
	39	3493	:	0.000000000000000	0.000000000000000;
	39	3497	:	86.311999999999998	0.000000000000000;
	39	10626	:	81.266999999999996	0.000000000000000;
	39	10629	:	0.000000000000000	0.000000000000000;
	39	10631	:	143.563999999999965	0.000000000000000;
	40	10624	:	0.000000000000000	0.000000000000000;
	40	12499	:	48.486999999999995	0.000000000000000;
	40	12500	:	36.552000000000007	0.000000000000000;
	40	12501	:	83.245000000000005	0.000000000000000;
	40	12511	:	0.000000000000000	0.000000000000000;
	41	11059	:	2.067000000000000	0.000000000000000;
	41	11060	:	0.000000000000000	0.000000000000000;
	41	11061	:	49.234999999999999	0.000000000000000;
	41	11066	:	0.000000000000000	0.000000000000000;
	41	11294	:	80.764000000000010	0.000000000000000;
	42	10242	:	4.033000000000000	0.000000000000000;
	42	10243	:	28.107999999999997	0.000000000000000;
	42	10250	:	14.838000000000001	0.000000000000000;
	42	10251	:	0.000000000000000	0.000000000000000;
	42	11203	:	67.132000000000005	0.000000000000000;
	43	10235	:	328.010402796290293	0.000000000000000;
	43	10237	:	0.000000000000000	0.000000000000000;
	43	10238	:	92.445597203709497	0.000000000000000;
	43	10245	:	0.000000000000000	0.000000000000000;
	43	10246	:	127.123000000000033	0.000000000000000;
	44	10872	:	0.000000000000000	0.000000000000000;
	44	10874	:	0.000000000000000	0.000000000000000;
	44	10875	:	0.000000000000000	0.000000000000000;
	44	10876	:	127.873999999999995	0.000000000000000;
	44	12143	:	45.712000000000003	0.000000000000000;
	45	12457	:	3.636000000000000	0.000000000000000;
	45	12458	:	0.000000000000000	0.000000000000000;
	45	12466	:	0.000000000000000	0.000000000000000;
	45	12469	:	0.000000000000000	0.000000000000000;
	45	12483	:	13.488000000000000	0.000000000000000;
	46	3512	:	0.000000000000000	0.000000000000000;
	46	3513	:	88.644000000000005	0.000000000000000;
	46	3514	:	100.278420036454591	0.000000000000000;
	46	3515	:	0.000000000000000	0.000000000000000;
	46	10292	:	92.116579963545405	0.000000000000000;
	47	12460	:	121.194000000000003	0.000000000000000;
	47	12461	:	0.000000000000000	0.000000000000000;
	47	12463	:	0.000000000000000	0.000000000000000;
	47	12481	:	0.000000000000000	0.000000000000000;
	47	12491	:	161.528999999999996	0.000000000000000;
	48	11036	:	0.000000000000000	0.000000000000000;
	48	12368	:	0.000000000000000	0.000000000000000;
	48	12371	:	52.545000000000002	0.000000000000000;
	48	12372	:	65.725999999999999	0.000000000000000;
	48	12385	:	116.096000000000032	0.000000000000000;
	49	12367	:	145.424000000000007	0.000000000000000;
	49	12377	:	0.000000000000000	0.000000000000000;
	49	12459	:	0.000000000000000	0.000000000000000;
	49	12464	:	0.000000000000000	0.000000000000000;
	49	12465	:	67.659000000000006	0.000000000000000;
	50	3376	:	20.625000000000000	0.000000000000000;
	50	3377	:	0.000000000000000	0.000000000000000;
	50	3499	:	16.697000000000003	0.000000000000000;
	50	10290	:	24.889000000000003	0.000000000000000;
	50	10291	:	0.000000000000000	0.000000000000000;
	51	3860	:	42.373109095357840	0.000000000000000;
	51	3861	:	0.000000000000000	0.000000000000000;
	51	10615	:	0.000000000000000	0.000000000000000;
	51	11034	:	57.154000000000011	0.000000000000000;
	51	11045	:	66.693890904642018	0.000000000000000;
	52	3492	:	0.000000000000000	0.000000000000000;
	52	3494	:	43.655000000000015	0.000000000000000;
	52	3495	:	83.439999999999998	0.000000000000000;
	52	3496	:	0.000000000000000	0.000000000000000;
	52	11045	:	95.713000000000008	0.000000000000000;
	53	7575	:	1.893000000000000	0.000000000000000;
	53	7576	:	22.265999999999998	0.000000000000000;
	53	8056	:	0.000000000000000	0.000000000000000;
	53	8060	:	0.000000000000000	0.000000000000000;
	53	8062	:	2.262000000000000	0.000000000000000;
	54	9542	:	100.994356513411446	0.000000000000000;
	54	9550	:	0.000000000000000	0.000000000000000;
	54	9551	:	0.000000000000000	0.000000000000000;
	54	9563	:	7.125643486588587	0.000000000000000;
	54	9564	:	0.000000000000000	0.000000000000000;
	55	8041	:	0.000000000000000	0.000000000000000;
	55	8042	:	0.000000000000000	0.000000000000000;
	55	8046	:	24.595999999999997	0.000000000000000;
	55	8047	:	10.416000000000000	0.000000000000000;
	55	11095	:	382.695999999999856	0.000000000000000;
	56	6476	:	28.945000000000004	0.000000000000000;
	56	8047	:	37.543999999999997	0.000000000000000;
	56	8048	:	0.000000000000000	0.000000000000000;
	56	8053	:	2.588000000000000	0.000000000000000;
	56	8054	:	0.000000000000000	0.000000000000000;
	57	8043	:	0.000000000000000	0.000000000000000;
	57	8045	:	37.670860400017176	0.000000000000000;
	57	8049	:	47.015000000000001	0.000000000000000;
	57	8245	:	0.000000000000000	0.000000000000000;
	57	8248	:	29.451139599982820	0.000000000000000;
	58	7572	:	62.308000000000000	0.000000000000000;
	58	8761	:	8.208000000000000	0.000000000000000;
	58	8762	:	0.000000000000000	0.000000000000000;
	58	9561	:	0.000000000000000	0.000000000000000;
	58	9562	:	45.611000000000011	0.000000000000000;
	59	8044	:	24.216999999999999	0.000000000000000;
	59	8244	:	8.898000000000000	0.000000000000000;
	59	9825	:	38.096999999999987	0.000000000000000;
	59	9827	:	0.000000000000000	0.000000000000000;
	59	11080	:	0.000000000000000	0.000000000000000;
	60	9604	:	7.898000000000001	0.000000000000000;
	60	9813	:	11.625999999999999	0.000000000000000;
	60	9819	:	0.000000000000000	0.000000000000000;
	60	9820	:	0.000000000000000	0.000000000000000;
	60	10137	:	20.664999999999999	0.000000000000000;
	61	1061	:	0.000000000000000	0.000000000000000;
	61	9781	:	0.000000000000000	0.000000000000000;
	61	9786	:	17.378000000000000	0.000000000000000;
	61	9871	:	0.000000000000000	0.000000000000000;
	61	9872	:	69.335000000000008	0.000000000000000;
	62	3645	:	13.203000000000001	0.000000000000000;
	62	3646	:	0.000000000000000	0.000000000000000;
	62	9604	:	50.835000000000008	0.000000000000000;
	62	9870	:	29.181081220442127	0.000000000000000;
	62	9872	:	4.692918779557890	0.000000000000000;
	63	9041	:	0.000000000000000	0.000000000000000;
	63	9043	:	1.344000000000000	0.000000000000000;
	63	9045	:	0.000000000000000	0.000000000000000;
	63	9046	:	0.000000000000000	0.000000000000000;
	63	9879	:	51.113999999999990	0.000000000000000;
	64	3586	:	0.000000000000000	0.000000000000000;
	64	9043	:	1.254000000000000	0.000000000000000;
	64	9044	:	12.720920131979693	0.000000000000000;
	64	9046	:	30.310000000000002	0.000000000000000;
	64	9047	:	12.809079868020307	0.000000000000000;
	65	9873	:	36.474303021040882	0.000000000000000;
	65	9876	:	0.000000000000000	0.000000000000000;
	65	9971	:	105.223972454954236	0.000000000000000;
	65	9982	:	0.000000000000000	0.000000000000000;
	65	9990	:	2.925724524005029	0.000000000000000;
	66	9360	:	77.179980014211182	0.000000000000000;
	66	9873	:	52.467019985788667	0.000000000000000;
	66	9974	:	0.000000000000000	0.000000000000000;
	66	9977	:	0.000000000000000	0.000000000000000;
	66	9981	:	0.000000000000000	0.000000000000000;
	67	8743	:	1.026000000000000	0.000000000000000;
	67	9359	:	0.000000000000000	0.000000000000000;
	67	9647	:	0.000000000000000	0.000000000000000;
	67	9879	:	66.204232841951750	0.000000000000000;
	67	10059	:	55.229767158048070	0.000000000000000;
	68	7553	:	338.937290463719705	0.000000000000000;
	68	8745	:	0.000000000000000	0.000000000000000;
	68	8747	:	0.000000000000000	0.000000000000000;
	68	9360	:	229.582709536280134	0.000000000000000;
	68	9361	:	0.000000000000000	0.000000000000000;
	69	8259	:	65.957999999999998	0.000000000000000;
	69	8284	:	0.000000000000000	0.000000000000000;
	69	9317	:	85.404909162336210	0.000000000000000;
	69	9318	:	15.621090837663733	0.000000000000000;
	69	9319	:	0.000000000000000	0.000000000000000;
	70	8160	:	35.587000000000003	0.000000000000000;
	70	8240	:	0.000000000000000	0.000000000000000;
	70	8260	:	0.000000000000000	0.000000000000000;
	70	8261	:	32.642000000000003	0.000000000000000;
	70	8263	:	0.000000000000000	0.000000000000000;
	71	8255	:	0.000000000000000	0.000000000000000;
	71	8256	:	13.115000000000000	0.000000000000000;
	71	8257	:	0.000000000000000	0.000000000000000;
	71	8259	:	1.221000000000000	0.000000000000000;
	71	8264	:	39.566000000000003	0.000000000000000;
	72	8254	:	1.080000000000000	0.000000000000000;
	72	8748	:	0.000000000000000	0.000000000000000;
	72	8749	:	12.981000000000000	0.000000000000000;
	72	8753	:	0.000000000000000	0.000000000000000;
	72	8759	:	9.770000000000000	0.000000000000000;
	73	8146	:	0.000000000000000	0.000000000000000;
	73	8147	:	0.000000000000000	0.000000000000000;
	73	8148	:	51.913999999999994	0.000000000000000;
	73	8149	:	73.156999999999996	0.000000000000000;
	73	8157	:	0.000000000000000	0.000000000000000;
	74	8161	:	0.000000000000000	0.000000000000000;
	74	8162	:	27.266000000000002	0.000000000000000;
	74	8165	:	0.000000000000000	0.000000000000000;
	74	8166	:	55.397999999999989	0.000000000000000;
	74	8223	:	0.000000000000000	0.000000000000000;
	75	8218	:	0.000000000000000	0.000000000000000;
	75	8220	:	88.155000000000001	0.000000000000000;
	75	8224	:	67.808000000000007	0.000000000000000;
	75	8226	:	0.000000000000000	0.000000000000000;
	75	8227	:	0.000000000000000	0.000000000000000;
	76	7564	:	22.181000000000004	0.000000000000000;
	76	8717	:	36.759000000000000	0.000000000000000;
	76	9335	:	0.000000000000000	0.000000000000000;
	76	9340	:	17.638999999999996	0.000000000000000;
	76	9342	:	0.000000000000000	0.000000000000000;
	77	8743	:	22.323000000000000	0.000000000000000;
	77	9980	:	0.000000000000000	0.000000000000000;
	77	9987	:	0.000000000000000	0.000000000000000;
	77	9988	:	52.989000000000011	0.000000000000000;
	77	9989	:	0.000000000000000	0.000000000000000;
	78	9311	:	4.836000000000000	0.000000000000000;
	78	9312	:	28.077000000000005	0.000000000000000;
	78	9538	:	0.000000000000000	0.000000000000000;
	78	9544	:	0.000000000000000	0.000000000000000;
	78	9546	:	63.514999999999993	0.000000000000000;
	79	9555	:	65.051000000000002	0.000000000000000;
	79	9558	:	0.000000000000000	0.000000000000000;
	79	9567	:	33.448999999999998	0.000000000000000;
	79	9568	:	19.027999999999999	0.000000000000000;
	79	9569	:	0.000000000000000	0.000000000000000;
	80	8264	:	10.852000000000000	0.000000000000000;
	80	8265	:	32.401000000000003	0.000000000000000;
	80	9206	:	0.000000000000000	0.000000000000000;
	80	9209	:	52.284999999999997	0.000000000000000;
	80	9603	:	39.070000000000007	0.000000000000000;
	81	7933	:	43.409000000000006	0.000000000000000;
	81	8179	:	0.000000000000000	0.000000000000000;
	81	8182	:	0.000000000000000	0.000000000000000;
	81	9207	:	30.211478976290739	0.000000000000000;
	81	9208	:	67.883521023709164	0.000000000000000;
	82	1043	:	0.000000000000000	0.000000000000000;
	82	8168	:	0.000000000000000	0.000000000000000;
	82	8171	:	8.505000000000001	0.000000000000000;
	82	8174	:	0.000000000000000	0.000000000000000;
	82	8180	:	0.000000000000000	0.000000000000000;
	83	10326	:	0.000000000000000	0.000000000000000;
	83	10878	:	6.665000000000001	0.000000000000000;
	83	10880	:	63.896999999999991	0.000000000000000;
	83	10881	:	35.673999999999992	0.000000000000000;
	83	10885	:	0.000000000000000	0.000000000000000;
	84	10321	:	36.383197669676548	0.000000000000000;
	84	10323	:	0.000000000000000	0.000000000000000;
	84	10330	:	0.000000000000000	0.000000000000000;
	84	10750	:	139.514802330323533	0.000000000000000;
	84	10751	:	0.000000000000000	0.000000000000000;
	85	1087	:	3.403000000000000	0.000000000000000;
	85	10324	:	9.271088057685596	0.000000000000000;
	85	10325	:	0.000000000000000	0.000000000000000;
	85	10742	:	23.507999999999999	0.000000000000000;
	85	10878	:	3.842911942314406	0.000000000000000;
	86	10883	:	0.000000000000000	0.000000000000000;
	86	10887	:	0.000000000000000	0.000000000000000;
	86	11987	:	49.133872496678762	0.000000000000000;
	86	11990	:	23.903127503321194	0.000000000000000;
	86	12003	:	0.000000000000000	0.000000000000000;
	87	11988	:	65.120000000000005	0.000000000000000;
	87	11991	:	40.971000000000004	0.000000000000000;
	87	11993	:	27.988000000000000	0.000000000000000;
	87	11998	:	0.000000000000000	0.000000000000000;
	87	12004	:	10.276000000000000	0.000000000000000;
	88	3309	:	12.258924414648714	0.000000000000000;
	88	3310	:	1.483000000000000	0.000000000000000;
	88	10316	:	0.000000000000000	0.000000000000000;
	88	10318	:	5.200193847123587	0.000000000000000;
	88	10320	:	15.415881738227702	0.000000000000000;
	89	11113	:	0.000000000000000	0.000000000000000;
	89	11116	:	14.292999999999999	0.000000000000000;
	89	11117	:	1.526000000000000	0.000000000000000;
	89	11122	:	8.989000000000001	0.000000000000000;
	89	11123	:	0.000000000000000	0.000000000000000;
	90	11000	:	40.638453962915030	0.000000000000000;
	90	11007	:	44.543546037084973	0.000000000000000;
	90	11986	:	0.000000000000000	0.000000000000000;
	90	11987	:	29.752000000000002	0.000000000000000;
	90	11988	:	10.876000000000001	0.000000000000000;
	91	3315	:	3.976087531743792	0.000000000000000;
	91	3316	:	0.000000000000000	0.000000000000000;
	91	3317	:	18.736912468256222	0.000000000000000;
	91	10316	:	7.430000000000000	0.000000000000000;
	91	10318	:	20.831000000000000	0.000000000000000;
	92	10747	:	7.018999999999999	0.000000000000000;
	92	11133	:	1.110000000000000	0.000000000000000;
	92	11134	:	3.605000000000000	0.000000000000000;
	92	11136	:	0.000000000000000	0.000000000000000;
	92	12249	:	1.778000000000000	0.000000000000000;
	93	12252	:	0.000000000000000	0.000000000000000;
	93	12253	:	117.525754911117431	0.000000000000000;
	93	12270	:	18.733245088882597	0.000000000000000;
	93	12337	:	76.977999999999994	0.000000000000000;
	93	12345	:	0.000000000000000	0.000000000000000;
	94	3321	:	14.065000000000000	0.000000000000000;
	94	3322	:	165.859763701858924	0.000000000000000;
	94	3325	:	216.859236298141042	0.000000000000000;
	94	3326	:	0.000000000000000	0.000000000000000;
	94	3327	:	0.000000000000000	0.000000000000000;
	95	3321	:	12.574999999999999	0.000000000000000;
	95	3322	:	58.937915398503456	0.000000000000000;
	95	3325	:	82.768084601496582	0.000000000000000;
	95	3326	:	0.000000000000000	0.000000000000000;
	95	3330	:	25.216999999999999	0.000000000000000;
	96	10760	:	0.000000000000000	0.000000000000000;
	96	11123	:	0.000000000000000	0.000000000000000;
	96	11124	:	5.282000000000000	0.000000000000000;
	96	11734	:	0.000000000000000	0.000000000000000;
	96	11736	:	2.167000000000000	0.000000000000000;
	97	10760	:	0.000000000000000	0.000000000000000;
	97	10890	:	0.000000000000000	0.000000000000000;
	97	10891	:	22.570999999999998	0.000000000000000;
	97	11113	:	135.126000000000005	0.000000000000000;
	97	11123	:	0.000000000000000	0.000000000000000;
	98	10893	:	2.007000000000000	0.000000000000000;
	98	10905	:	72.867745785484047	0.000000000000000;
	98	11718	:	30.678254214515988	0.000000000000000;
	98	11719	:	0.000000000000000	0.000000000000000;
	98	11723	:	0.000000000000000	0.000000000000000;
	99	10902	:	45.853999999999999	0.000000000000000;
	99	10907	:	2.908000000000000	0.000000000000000;
	99	10958	:	0.000000000000000	0.000000000000000;
	99	10959	:	0.000000000000000	0.000000000000000;
	99	11718	:	17.343000000000000	0.000000000000000;
	100	3386	:	3.437242909980833	0.000000000000000;
	100	3387	:	7.709841541246651	0.000000000000000;
	100	3388	:	22.469999999999999	0.000000000000000;
	100	3854	:	13.258915548772521	0.000000000000000;
	100	10159	:	0.000000000000000	0.000000000000000;
	101	3845	:	26.641017581483315	0.000000000000000;
	101	10762	:	0.000000000000000	0.000000000000000;
	101	10767	:	18.004982418516679	0.000000000000000;
	101	10768	:	30.767197453581733	0.000000000000000;
	101	10769	:	48.433802546418271	0.000000000000000;
	102	3333	:	0.000000000000000	0.000000000000000;
	102	11541	:	167.365932597886427	0.000000000000000;
	102	11542	:	0.000000000000000	0.000000000000000;
	102	11543	:	0.000000000000000	0.000000000000000;
	102	11544	:	71.919067402113484	0.000000000000000;
	103	3329	:	27.806000000000001	0.000000000000000;
	103	3331	:	0.000000000000000	0.000000000000000;
	103	3332	:	0.000000000000000	0.000000000000000;
	103	3334	:	23.558000000000000	0.000000000000000;
	103	3335	:	0.000000000000000	0.000000000000000;
	104	10898	:	0.000000000000000	0.000000000000000;
	104	10901	:	129.587071083706149	0.000000000000000;
	104	10904	:	36.842999999999996	0.000000000000000;
	104	10906	:	138.210654572147547	0.000000000000000;
	104	12546	:	118.374274344146244	0.000000000000000;
	105	3373	:	0.000000000000000	0.000000000000000;
	105	3374	:	32.239918479019792	0.000000000000000;
	105	10759	:	7.806000000000000	0.000000000000000;
	105	12528	:	26.881175664563933	0.000000000000000;
	105	12530	:	15.654905856416354	0.000000000000000;
	106	10893	:	13.371999999999998	0.000000000000000;
	106	10900	:	0.000000000000000	0.000000000000000;
	106	10901	:	62.440716442230858	0.000000000000000;
	106	10904	:	43.366283557769137	0.000000000000000;
	106	10905	:	2.964000000000000	0.000000000000000;
	107	12546	:	73.243013668059589	0.000000000000000;
	107	12553	:	0.000000000000000	0.000000000000000;
	107	12583	:	63.120000000000012	0.000000000000000;
	107	12636	:	192.238986331940453	0.000000000000000;
	107	12637	:	0.000000000000000	0.000000000000000;
	108	10896	:	0.000000000000000	0.000000000000000;
	108	11071	:	0.000000000000000	0.000000000000000;
	108	12772	:	55.316000000000017	0.000000000000000;
	108	12773	:	134.856000000000023	0.000000000000000;
	108	12784	:	0.000000000000000	0.000000000000000;
	109	10189	:	14.934999999999999	0.000000000000000;
	109	10195	:	25.522000000000002	0.000000000000000;
	109	10201	:	2.186000000000000	0.000000000000000;
	109	10206	:	24.399999999999999	0.000000000000000;
	109	10990	:	59.200999999999993	0.000000000000000;
	110	10191	:	0.000000000000000	0.000000000000000;
	110	10200	:	503.867999999999995	0.000000000000000;
	110	10201	:	2.071000000000000	0.000000000000000;
	110	10991	:	195.182000000000045	0.000000000000000;
	110	11074	:	336.784999999999911	0.000000000000000;
	111	3347	:	20.784999999999997	0.000000000000000;
	111	11567	:	57.493751044902098	0.000000000000000;
	111	11568	:	0.000000000000000	0.000000000000000;
	111	11574	:	151.040248955097866	0.000000000000000;
	111	11575	:	0.000000000000000	0.000000000000000;
	112	3367	:	174.202615251070995	0.000000000000000;
	112	10966	:	256.973081649750611	0.000000000000000;
	112	11672	:	15.010179612341217	0.000000000000000;
	112	11675	:	0.000000000000000	0.000000000000000;
	112	11678	:	112.938123486836943	0.000000000000000;
	113	10986	:	19.216707200681924	0.000000000000000;
	113	11615	:	11.311292799318087	0.000000000000000;
	113	11673	:	0.000000000000000	0.000000000000000;
	113	11689	:	0.000000000000000	0.000000000000000;
	113	11690	:	45.023000000000003	0.000000000000000;
	114	3369	:	46.823212439709550	0.000000000000000;
	114	10281	:	0.000000000000000	0.000000000000000;
	114	10282	:	0.000000000000000	0.000000000000000;
	114	10285	:	112.446766406702650	0.000000000000000;
	114	10286	:	156.114021153587998	0.000000000000000;
	115	3830	:	0.000000000000000	0.000000000000000;
	115	3835	:	92.244000000000000	0.000000000000000;
	115	3836	:	118.610000000000028	0.000000000000000;
	115	10972	:	67.051873999369704	0.000000000000000;
	115	10980	:	69.426126000630333	0.000000000000000;
	116	10973	:	111.188769186680773	0.000000000000000;
	116	10975	:	0.000000000000000	0.000000000000000;
	116	10976	:	0.000000000000000	0.000000000000000;
	116	10977	:	122.323230813319256	0.000000000000000;
	116	10978	:	42.789999999999999	0.000000000000000;
	117	10160	:	48.397097825176381	0.000000000000000;
	117	10161	:	0.000000000000000	0.000000000000000;
	117	12012	:	0.000000000000000	0.000000000000000;
	117	12013	:	0.000000000000000	0.000000000000000;
	117	12014	:	59.035902174823605	0.000000000000000;
	118	3329	:	0.000000000000000	0.000000000000000;
	118	11855	:	74.592784211900948	0.000000000000000;
	118	12011	:	0.000000000000000	0.000000000000000;
	118	12638	:	114.262213609197090	0.000000000000000;
	118	12640	:	34.913002178901785	0.000000000000000;
	119	10914	:	62.007951838757236	0.000000000000000;
	119	10919	:	0.000000000000000	0.000000000000000;
	119	10920	:	109.596048161242905	0.000000000000000;
	119	10924	:	0.000000000000000	0.000000000000000;
	119	10925	:	0.000000000000000	0.000000000000000;
	120	3349	:	2.884000000000000	0.000000000000000;
	120	3350	:	0.000000000000000	0.000000000000000;
	120	10912	:	112.133709823963542	0.000000000000000;
	120	10916	:	197.520000000000039	0.000000000000000;
	120	11127	:	121.297290176036526	0.000000000000000;
	121	3840	:	0.000000000000000	0.000000000000000;
	121	3842	:	161.771799691305546	0.000000000000000;
	121	11125	:	0.000000000000000	0.000000000000000;
	121	11126	:	77.696200308694387	0.000000000000000;